user_container/apps/business_flow/genconf/opendss/modified/lines.dss
/********************************************************************************************************  line definitions for kV  ***/
new line.1_2_1_1 Bus1=1_riversde Bus2=2_pokagon phases=3 r1=5.770332 x1=19.024956 r0=25.22940779722097 x0=54.92286333630251 c1=353.78908094711727 c0=213.0342854308322 length=1.0 normamps=418.36976028233755 emergamps=627.5546404235063 enabled=true
new line.1_3_1_1 Bus1=1_riversde Bus2=3_hickryck phases=3 r1=2.456676 x1=8.074656 r0=10.741233022579223 x0=23.310604659251517 c1=150.70857700188225 c0=90.74925072289781 length=1.0 normamps=418.36976028233755 emergamps=627.5546404235063 enabled=true
new line.2_12_1_1 Bus1=2_pokagon Bus2=12_twinbrch phases=3 r1=3.5612280000000003 x1=11.731104 r0=15.570624614126475 x0=33.86635016532768 c1=218.95922647593244 c0=131.84641602254655 length=1.0 normamps=418.36976028233755 emergamps=627.5546404235063 enabled=true
new line.3_5_1_1 Bus1=3_hickryck Bus2=5_olive phases=3 r1=4.589604 x1=20.56752 r0=20.066954716601494 x0=59.37606847167839 c1=395.5751928700052 c0=238.19581520612738 length=1.0 normamps=418.36976028233755 emergamps=627.5546404235063 enabled=true
new line.3_12_1_1 Bus1=3_hickryck Bus2=12_twinbrch phases=3 r1=9.217296 x1=30.4704 r0=40.300440177739105 x0=87.964545883968 c1=565.5053813564159 c0=340.519369625661 length=1.0 normamps=418.36976028233755 emergamps=627.5546404235063 enabled=true
new line.4_5_1_1 Bus1=4_nwcarlsl Bus2=5_olive phases=3 r1=0.3351744 x1=1.5197112 r0=1.4654705519177855 x0=4.387231725962904 c1=29.25027834602151 c0=17.613070842706602 length=1.0 normamps=418.36976028233755 emergamps=627.5546404235063 enabled=true
new line.4_11_1_1 Bus1=4_nwcarlsl Bus2=11_southbnd phases=3 r1=3.980196 x1=13.102272 r0=17.402462804023703 x0=37.824754730106235 c1=243.4737454706934 c0=146.60784682405307 length=1.0 normamps=418.36976028233755 emergamps=627.5546404235063 enabled=true
new line.5_6_1_1 Bus1=5_olive Bus2=6_kankakee phases=3 r1=2.266236 x1=10.28376 r0=9.908579299898665 x0=29.688034235839194 c1=198.62331867346037 c0=119.6011381985696 length=1.0 normamps=418.36976028233755 emergamps=627.5546404235063 enabled=true
new line.5_11_1_1 Bus1=5_olive Bus2=11_southbnd phases=3 r1=3.8659319999999995 x1=12.988007999999999 r0=16.902870570415367 x0=37.494887683041355 c1=242.08087507326374 c0=145.76912916487655 length=1.0 normamps=418.36976028233755 emergamps=627.5546404235063 enabled=true
new line.6_7_1_1 Bus1=6_kankakee Bus2=7_jacksnrd phases=3 r1=0.8741196000000001 x1=3.961152 r0=3.821880587103771 x0=11.435390964915838 c1=76.60787185862776 c0=46.12947125470776 length=1.0 normamps=418.36976028233755 emergamps=627.5546404235063 enabled=true
new line.7_12_1_1 Bus1=7_jacksnrd Bus2=12_twinbrch phases=3 r1=1.6415927999999997 x1=6.47496 r0=7.1774750895064265 x0=18.6924660003432 c1=121.7368727353467 c0=73.30392341202653 length=1.0 normamps=418.36976028233755 emergamps=627.5546404235063 enabled=true
new line.8_9_1_1 Bus1=8_olive Bus2=9_bequine phases=3 r1=0.46467359999999996 x1=5.80842 r0=2.0316750833405663 x0=16.768241559131397 c1=16185.154018131901 c0=9745.899199630985 length=1.0 normamps=418.36976028233755 emergamps=627.5546404235063 enabled=true
new line.8_30_1_1 Bus1=8_olive Bus2=30_sorenson phases=3 r1=0.8207963999999999 x1=9.598176 r0=3.5887375447532133 x0=27.70883195344992 c1=7159.353842788122 c0=4311.008768167235 length=1.0 normamps=418.36976028233755 emergamps=627.5546404235063 enabled=true
new line.9_10_1_1 Bus1=9_bequine Bus2=10_breed phases=3 r1=0.49133519999999997 x1=6.132168 r0=2.148246604515845 x0=17.70286485914856 c1=17132.305888384028 c0=10316.22720787101 length=1.0 normamps=418.36976028233755 emergamps=627.5546404235063 enabled=true
new line.11_12_1_1 Bus1=11_southbnd Bus2=12_twinbrch phases=3 r1=1.133118 x1=3.732624 r0=4.954289649949333 x0=10.77565687078608 c1=69.9220939509657 c0=42.10362649066054 length=1.0 normamps=418.36976028233755 emergamps=627.5546404235063 enabled=true
new line.11_13_1_1 Bus1=11_southbnd Bus2=13_concord phases=3 r1=4.23729 x1=13.921164 r0=18.52654532964246 x0=40.18880190073787 c1=261.3024865577922 c0=157.34343286151233 length=1.0 normamps=418.36976028233755 emergamps=627.5546404235063 enabled=true
new line.12_14_1_1 Bus1=12_twinbrch Bus2=14_goshenjt phases=3 r1=4.09446 x1=13.464108 r0=17.90205503763204 x0=38.86933371247836 c1=252.94526417321455 c0=152.31112690645327 length=1.0 normamps=418.36976028233755 emergamps=627.5546404235063 enabled=true
new line.12_16_1_1 Bus1=12_twinbrch Bus2=16_ne phases=3 r1=4.037328 x1=15.882696000000001 r0=17.652258920827872 x0=45.851519542018316 c1=298.0742650499335 c0=179.48557906377204 length=1.0 normamps=418.36976028233755 emergamps=627.5546404235063 enabled=true
new line.12_117_1_1 Bus1=12_twinbrch Bus2=117_corey phases=3 r1=6.265476 x1=26.661600000000004 r0=27.394307476190424 x0=76.968977648472 c1=498.64760227979525 c0=300.2609219851887 length=1.0 normamps=418.36976028233755 emergamps=627.5546404235063 enabled=true
new line.13_15_1_1 Bus1=13_concord Bus2=15_ftwayne phases=3 r1=14.168735999999999 x1=46.543536 r0=61.94943696743366 x0=134.3658438377611 c1=873.0511651088706 c0=525.7082287718332 length=1.0 normamps=418.36976028233755 emergamps=627.5546404235063 enabled=true
new line.14_15_1_1 Bus1=14_goshenjt Bus2=15_ftwayne phases=3 r1=11.33118 x1=37.1358 r0=49.542896499493324 x0=107.206790296086 c1=699.220939509657 c0=421.03626490660537 length=1.0 normamps=418.36976028233755 emergamps=627.5546404235063 enabled=true
new line.15_17_1_1 Bus1=15_ftwayne Bus2=17_sorenson phases=3 r1=2.513808 x1=8.322228 r0=10.991029139383393 x0=24.02531659455876 c1=618.4344564587406 c0=372.39064067436817 length=1.0 normamps=418.36976028233755 emergamps=627.5546404235063 enabled=true
new line.15_19_1_1 Bus1=15_ftwayne Bus2=19_lincoln phases=3 r1=2.28528 x1=7.503335999999999 r0=9.991844672166721 x0=21.661269423927116 c1=140.67991014038915 c0=84.71048357682697 length=1.0 normamps=418.36976028233755 emergamps=627.5546404235063 enabled=true
new line.15_33_1_1 Bus1=15_ftwayne Bus2=33_haviland phases=3 r1=7.23672 x1=23.690735999999998 r0=31.64084146186128 x0=68.39243442478511 c1=444.88280493901283 c0=267.88642034097563 length=1.0 normamps=418.36976028233755 emergamps=627.5546404235063 enabled=true
new line.16_17_1_1 Bus1=16_ne Bus2=17_sorenson phases=3 r1=8.645976000000001 x1=34.298244000000004 r0=37.80247900969743 x0=99.01509196064148 c1=649.0776052021916 c0=390.84242917625124 length=1.0 normamps=418.36976028233755 emergamps=627.5546404235063 enabled=true
new line.17_18_1_1 Bus1=17_sorenson Bus2=18_mckinley phases=3 r1=2.342412 x1=9.61722 r0=10.241640788970889 x0=27.763809794627395 c1=180.79457758636156 c0=108.86555216111034 length=1.0 normamps=418.36976028233755 emergamps=627.5546404235063 enabled=true
new line.17_31_1_1 Bus1=17_sorenson Bus2=31_deercrk phases=3 r1=9.026855999999999 x1=29.765772 r0=39.46778645505854 x0=85.93036576040123 c1=555.7552885744087 c0=334.6483460114254 length=1.0 normamps=418.36976028233755 emergamps=627.5546404235063 enabled=true
new line.17_113_1_1 Bus1=17_sorenson Bus2=113_deercrk phases=3 r1=1.7387171999999997 x1=5.732244 r0=7.602128488073512 x0=16.548330194421478 c1=106.97244652259295 c0=64.41351622475557 length=1.0 normamps=418.36976028233755 emergamps=627.5546404235063 enabled=true
new line.18_19_1_1 Bus1=18_mckinley Bus2=19_lincoln phases=3 r1=2.1310236000000002 x1=9.388691999999999 r0=9.317395156795468 x0=27.104075700497635 c1=159.06579938645982 c0=95.78155667795684 length=1.0 normamps=418.36976028233755 emergamps=627.5546404235063 enabled=true
new line.19_20_1_1 Bus1=19_lincoln Bus2=20_adams phases=3 r1=4.799088 x1=22.281480000000002 r0=20.982873811550114 x0=64.3240741776516 c1=415.0753784340195 c0=249.93786243459843 length=1.0 normamps=418.36976028233755 emergamps=627.5546404235063 enabled=true
new line.19_34_1_1 Bus1=19_lincoln Bus2=34_rockhill phases=3 r1=14.321088 x1=47.03868 r0=62.61555994557811 x0=135.79526770837558 c1=880.2940911755046 c0=530.0695605995511 length=1.0 normamps=418.36976028233755 emergamps=627.5546404235063 enabled=true
new line.20_21_1_1 Bus1=20_adams Bus2=21_jay phases=3 r1=3.485052 x1=16.168356 r0=15.23756312505425 x0=46.67618715968052 c1=300.8600058447927 c0=181.16301438212506 length=1.0 normamps=418.36976028233755 emergamps=627.5546404235063 enabled=true
new line.21_22_1_1 Bus1=21_jay Bus2=22_randolph phases=3 r1=3.980196 x1=18.47268 r0=17.402462804023703 x0=53.328505942155594 c1=342.64611776768055 c0=206.32454415742018 length=1.0 normamps=418.36976028233755 emergamps=627.5546404235063 enabled=true
new line.22_23_1_1 Bus1=22_randolph Bus2=23_collcrnr phases=3 r1=6.513048 x1=30.27996 r0=28.476757315675155 x0=87.41476747219319 c1=562.7196405615566 c0=338.8419343073079 length=1.0 normamps=418.36976028233755 emergamps=627.5546404235063 enabled=true
new line.23_24_1_1 Bus1=23_collcrnr Bus2=24_trenton phases=3 r1=2.57094 x1=9.369648 r0=11.24082525618756 x0=27.049097859320156 c1=693.6494579199386 c0=417.6813942698994 length=1.0 normamps=418.36976028233755 emergamps=627.5546404235063 enabled=true
new line.23_25_1_1 Bus1=23_collcrnr Bus2=25_tannrsck phases=3 r1=2.9708639999999997 x1=15.2352 r0=12.989398073816735 x0=43.982272941984 c1=1203.4400233791707 c0=724.6520575285002 length=1.0 normamps=418.36976028233755 emergamps=627.5546404235063 enabled=true
new line.23_32_1_1 Bus1=23_collcrnr Bus2=32_delaware phases=3 r1=6.036948 x1=21.957732 r0=26.39512300897375 x0=63.38945087763444 c1=1633.8369761849158 c0=983.8158142140402 length=1.0 normamps=418.36976028233755 emergamps=627.5546404235063 enabled=true
new line.24_70_1_1 Bus1=24_trenton Bus2=70_portsmth phases=3 r1=0.42087240000000004 x1=78.36605999999999 r0=1.8401647271240378 x0=226.23381644533015 c1=1420.4492312987018 c0=855.3242688281996 length=1.0 normamps=418.36976028233755 emergamps=627.5546404235063 enabled=true
new line.24_72_1_1 Bus1=24_trenton Bus2=72_hillsbro phases=3 r1=9.293472000000001 x1=37.32624 r0=40.633501666811334 x0=107.7565687078608 c1=679.7207539456427 c0=409.2942176781344 length=1.0 normamps=418.36976028233755 emergamps=627.5546404235063 enabled=true
new line.25_27_1_1 Bus1=25_tannrsck Bus2=27_madison phases=3 r1=6.055992000000001 x1=31.04172 r0=26.478388381241814 x0=89.6138811192924 c1=2457.023381065807 c0=1479.4979507873545 length=1.0 normamps=418.36976028233755 emergamps=627.5546404235063 enabled=true
new line.26_30_1_1 Bus1=26_tannrsck Bus2=30_sorenson phases=3 r1=1.5216156 x1=16.37784 r0=6.652903244217675 x0=47.280943412632794 c1=12647.26320866073 c0=7615.556345322664 length=1.0 normamps=418.36976028233755 emergamps=627.5546404235063 enabled=true
new line.27_28_1_1 Bus1=27_madison Bus2=28_mullin phases=3 r1=3.6431172000000003 x1=16.28262 r0=15.928665714879115 x0=47.006054206745404 c1=300.8600058447927 c0=181.16301438212506 length=1.0 normamps=418.36976028233755 emergamps=627.5546404235063 enabled=true
new line.27_32_1_1 Bus1=27_madison Bus2=32_delaware phases=3 r1=4.361076 x1=14.378219999999999 r0=19.067770249384825 x0=41.50827008899739 c1=268.26683854494013 c0=161.53702115739483 length=1.0 normamps=418.36976028233755 emergamps=627.5546404235063 enabled=true
new line.27_115_1_1 Bus1=27_madison Bus2=115_medford phases=3 r1=3.123216 x1=14.111604 r0=13.655521051961186 x0=40.738580312512674 c1=274.67404237311627 c0=165.39512238960674 length=1.0 normamps=418.36976028233755 emergamps=627.5546404235063 enabled=true
new line.28_29_1_1 Bus1=28_mullin Bus2=29_grant phases=3 r1=4.513427999999999 x1=17.958492 r0=19.73389322752927 x0=51.844104230363634 c1=331.50315458824383 c0=199.61480288400818 length=1.0 normamps=418.36976028233755 emergamps=627.5546404235063 enabled=true
new line.29_31_1_1 Bus1=29_grant Bus2=31_deercrk phases=3 r1=2.056752 x1=6.303564 r0=8.992660204950049 x0=18.19766542974588 c1=115.60824298665645 c0=69.6135657116499 length=1.0 normamps=418.36976028233755 emergamps=627.5546404235063 enabled=true
new line.30_38_1_1 Bus1=30_sorenson Bus2=38_eastlima phases=3 r1=0.8836416 x1=10.28376 r0=3.863513273237799 x0=29.688034235839194 c1=5877.9130771528935 c0=3539.38852172485 length=1.0 normamps=418.36976028233755 emergamps=627.5546404235063 enabled=true
new line.31_32_1_1 Bus1=31_deercrk Bus2=32_delaware phases=3 r1=5.675112 x1=18.75834 r0=24.81308093588069 x0=54.153173559817795 c1=349.6104697548285 c0=210.51813245330268 length=1.0 normamps=418.36976028233755 emergamps=627.5546404235063 enabled=true
new line.32_113_1_1 Bus1=32_delaware Bus2=113_deercrk phases=3 r1=11.71206 x1=38.65932 r0=51.20820394485444 x0=111.60501759028439 c1=721.5068658685306 c0=434.45574745342947 length=1.0 normamps=418.36976028233755 emergamps=627.5546404235063 enabled=true
new line.32_114_1_1 Bus1=32_delaware Bus2=114_wmedford phases=3 r1=2.57094 x1=11.654928 r0=11.24082525618756 x0=33.64643880061776 c1=226.75930070153822 c0=136.543234913935 length=1.0 normamps=418.36976028233755 emergamps=627.5546404235063 enabled=true
new line.33_37_1_1 Bus1=33_haviland Bus2=37_eastlima phases=3 r1=7.90326 x1=27.042479999999998 r0=34.55512949124324 x0=78.06853447202158 c1=509.7905654592321 c0=306.9706632586008 length=1.0 normamps=418.36976028233755 emergamps=627.5546404235063 enabled=true
new line.34_36_1_1 Bus1=34_rockhill Bus2=36_sterling phases=3 r1=1.6587324 x1=5.103792 r0=7.252413924547678 x0=14.734061435564639 c1=79.11503857400103 c0=47.63916304122547 length=1.0 normamps=418.36976028233755 emergamps=627.5546404235063 enabled=true
new line.34_37_1_1 Bus1=34_rockhill Bus2=37_eastlima phases=3 r1=0.4875264 x1=1.790136 r0=2.1315935300622337 x0=5.16791707068312 c1=137.0584471070722 c0=82.52981766296806 length=1.0 normamps=418.36976028233755 emergamps=627.5546404235063 enabled=true
new line.34_43_1_1 Bus1=34_rockhill Bus2=43_skenton phases=3 r1=7.865172 x1=32.012964 r0=34.38859874670713 x0=92.41775101934387 c1=588.6270299537471 c0=354.4420827679909 length=1.0 normamps=418.36976028233755 emergamps=627.5546404235063 enabled=true
new line.35_36_1_1 Bus1=35_westlima Bus2=36_sterling phases=3 r1=0.42658559999999995 x1=1.9424880000000002 r0=1.8651443388044542 x0=5.60773980010296 c1=37.328926651113164 c0=22.47763326593033 length=1.0 normamps=418.36976028233755 emergamps=627.5546404235063 enabled=true
new line.35_37_1_1 Bus1=35_westlima Bus2=37_eastlima phases=3 r1=2.09484 x1=9.464868000000001 r0=9.159190949486161 x0=27.32398706520756 c1=183.58031838122074 c0=110.54298747946335 length=1.0 normamps=418.36976028233755 emergamps=627.5546404235063 enabled=true
new line.37_39_1_1 Bus1=37_eastlima Bus2=39_nwlibrty phases=3 r1=6.113123999999999 x1=20.18664 r0=26.728184498045973 x0=58.276511648128796 c1=376.0750073059908 c0=226.4537679776563 length=1.0 normamps=418.36976028233755 emergamps=627.5546404235063 enabled=true
new line.37_40_1_1 Bus1=37_eastlima Bus2=40_westend phases=3 r1=11.293092 x1=31.993920000000003 r0=49.376365754957206 x0=92.3627731781664 c1=585.0055669204303 c0=352.26141685413205 length=1.0 normamps=418.36976028233755 emergamps=627.5546404235063 enabled=true
new line.38_65_1_1 Bus1=38_eastlima Bus2=65_muskngum phases=3 r1=1.7158644 x1=18.777383999999998 r0=7.502210041351846 x0=54.20815140099527 c1=14569.424357113572 c0=8772.98671498624 length=1.0 normamps=418.36976028233755 emergamps=627.5546404235063 enabled=true
new line.39_40_1_1 Bus1=39_nwlibrty Bus2=40_westend phases=3 r1=3.504096 x1=11.521619999999999 r0=15.320828497322305 x0=33.261593912375396 c1=216.17348568107326 c0=130.16898070419356 length=1.0 normamps=418.36976028233755 emergamps=627.5546404235063 enabled=true
new line.40_41_1_1 Bus1=40_westend Bus2=41_stiffin phases=3 r1=2.76138 x1=9.274428 r0=12.07347897886812 x0=26.77420865343276 c1=170.2087625658966 c0=102.49129795136889 length=1.0 normamps=418.36976028233755 emergamps=627.5546404235063 enabled=true
new line.40_42_1_1 Bus1=40_westend Bus2=42_howard phases=3 r1=10.56942 x1=34.850519999999996 r0=46.21228160877108 x0=100.60944935478838 c1=649.0776052021916 c0=390.84242917625124 length=1.0 normamps=418.36976028233755 emergamps=627.5546404235063 enabled=true
new line.41_42_1_1 Bus1=41_stiffin Bus2=42_howard phases=3 r1=7.80804 x1=25.709400000000002 r0=34.13880262990296 x0=74.220085589598 c1=479.1474167157809 c0=288.51887475671765 length=1.0 normamps=418.36976028233755 emergamps=627.5546404235063 enabled=true
new line.42_49_1_1 Bus1=42_howard Bus2=49_philo phases=3 r1=13.616459999999998 x1=61.51212 r0=59.53474117166004 x0=177.5784270032604 c1=1197.8685417894521 c0=721.297186891794 length=1.0 normamps=418.36976028233755 emergamps=627.5546404235063 enabled=true
new line.42_49_1_1 Bus1=42_howard Bus2=49_philo phases=3 r1=13.616459999999998 x1=61.51212 r0=59.53474117166004 x0=177.5784270032604 c1=1197.8685417894521 c0=721.297186891794 length=1.0 normamps=418.36976028233755 emergamps=627.5546404235063 enabled=true
new line.43_44_1_1 Bus1=43_skenton Bus2=44_wmvernon phases=3 r1=11.578752 x1=46.733976 r0=50.62534633897805 x0=134.91562224953591 c1=845.1937571602787 c0=508.9338755883031 length=1.0 normamps=418.36976028233755 emergamps=627.5546404235063 enabled=true
new line.44_45_1_1 Bus1=44_wmvernon Bus2=45_nnewark phases=3 r1=4.265856 x1=17.158644 r0=18.651443388044544 x0=49.53503490090947 c1=312.00296902422946 c0=187.87275565553708 length=1.0 normamps=418.36976028233755 emergamps=627.5546404235063 enabled=true
new line.45_46_1_1 Bus1=45_nnewark Bus2=46_wlancst phases=3 r1=7.6176 x1=25.823664 r0=33.3061489072224 x0=74.54995263666288 c1=462.4329719466258 c0=278.4542628465996 length=1.0 normamps=418.36976028233755 emergamps=627.5546404235063 enabled=true
new line.45_49_1_1 Bus1=45_nnewark Bus2=49_philo phases=3 r1=13.026096 x1=35.421839999999996 r0=56.95351463135031 x0=102.25878459011278 c1=618.4344564587406 c0=372.39064067436817 length=1.0 normamps=418.36976028233755 emergamps=627.5546404235063 enabled=true
new line.46_47_1_1 Bus1=46_wlancst Bus2=47_crooksvl phases=3 r1=7.23672 x1=24.18588 r0=31.64084146186128 x0=69.8218582953996 c1=440.1470455877523 c0=265.03478029977555 length=1.0 normamps=418.36976028233755 emergamps=627.5546404235063 enabled=true
new line.46_48_1_1 Bus1=46_wlancst Bus2=48_zanesvll phases=3 r1=11.445444 x1=35.99316 r0=50.042488733101656 x0=103.9081198254372 c1=657.4348275867691 c0=395.8747351313102 length=1.0 normamps=418.36976028233755 emergamps=627.5546404235063 enabled=true
new line.47_49_1_1 Bus1=47_crooksvl Bus2=49_philo phases=3 r1=3.6374039999999996 x1=11.9025 r0=15.903686103198694 x0=34.361150735924994 c1=223.4164117477072 c0=134.5303125319114 length=1.0 normamps=418.36976028233755 emergamps=627.5546404235063 enabled=true
new line.47_69_1_1 Bus1=47_crooksvl Bus2=69_sporn phases=3 r1=16.073136 x1=52.904232 r0=70.27597419423927 x0=152.72844279103944 c1=987.8236858570693 c0=594.8185638879772 length=1.0 normamps=418.36976028233755 emergamps=627.5546404235063 enabled=true
new line.48_49_1_1 Bus1=48_zanesvll Bus2=49_philo phases=3 r1=3.408876 x1=9.61722 r0=14.904501635982024 x0=27.763809794627395 c1=175.22309599664314 c0=105.5106815244043 length=1.0 normamps=418.36976028233755 emergamps=627.5546404235063 enabled=true
new line.49_50_1_1 Bus1=49_philo Bus2=50_wcambrdg phases=3 r1=5.084748 x1=14.321088 r0=22.231854395570956 x0=41.34333656546496 c1=261.0239124783062 c0=157.175689329677 length=1.0 normamps=418.36976028233755 emergamps=627.5546404235063 enabled=true
new line.49_51_1_1 Bus1=49_philo Bus2=51_newcmrst phases=3 r1=9.255384 x1=26.090280000000003 r0=40.466970922275216 x0=75.3196424131476 c1=476.36167592092175 c0=286.84143943836466 length=1.0 normamps=418.36976028233755 emergamps=627.5546404235063 enabled=true
new line.49_54_1_1 Bus1=49_philo Bus2=54_torrey phases=3 r1=13.902119999999998 x1=55.03715999999999 r0=60.78372175568087 x0=158.88596100291716 c1=1027.9383533030418 c0=618.9736324722606 length=1.0 normamps=418.36976028233755 emergamps=627.5546404235063 enabled=true
new line.49_54_1_1 Bus1=49_philo Bus2=54_torrey phases=3 r1=16.549236 x1=55.41804 r0=72.35760850094067 x0=159.98551782646678 c1=1016.7953901236048 c0=612.2638911988485 length=1.0 normamps=418.36976028233755 emergamps=627.5546404235063 enabled=true
new line.49_66_1_1 Bus1=49_philo Bus2=66_muskngum phases=3 r1=3.42792 x1=17.501435999999998 r0=14.98776700825008 x0=50.52463604210411 c1=345.43185856253973 c0=208.0019794757732 length=1.0 normamps=418.36976028233755 emergamps=627.5546404235063 enabled=true
new line.49_66_1_1 Bus1=49_philo Bus2=66_muskngum phases=3 r1=3.42792 x1=17.501435999999998 r0=14.98776700825008 x0=50.52463604210411 c1=345.43185856253973 c0=208.0019794757732 length=1.0 normamps=418.36976028233755 emergamps=627.5546404235063 enabled=true
new line.49_69_1_1 Bus1=49_philo Bus2=69_sporn phases=3 r1=18.75834 x1=61.70256 r0=82.01639168403517 x0=178.12820541503518 c1=1153.296689071705 c0=694.4582217981458 length=1.0 normamps=418.36976028233755 emergamps=627.5546404235063 enabled=true
new line.50_57_1_1 Bus1=50_wcambrdg Bus2=57_wnwphil1 phases=3 r1=9.026855999999999 x1=25.51896 r0=39.46778645505854 x0=73.67030717782319 c1=462.4329719466258 c0=278.4542628465996 length=1.0 normamps=418.36976028233755 emergamps=627.5546404235063 enabled=true
new line.51_52_1_1 Bus1=51_newcmrst Bus2=52_scoshoct phases=3 r1=3.8659319999999995 x1=11.197872 r0=16.902870570415367 x0=32.32697061235824 c1=194.44470748117155 c0=117.08498522104007 length=1.0 normamps=418.36976028233755 emergamps=627.5546404235063 enabled=true
new line.51_58_1_1 Bus1=51_newcmrst Bus2=58_wnwphil2 phases=3 r1=4.8562199999999995 x1=13.692636 r0=21.23266992835428 x0=39.52906780660812 c1=249.04522706041175 c0=149.96271746075908 length=1.0 normamps=418.36976028233755 emergamps=627.5546404235063 enabled=true
new line.52_53_1_1 Bus1=52_scoshoct Bus2=53_wooster phases=3 r1=7.71282 x1=31.13694 r0=33.72247576856268 x0=89.88877032517979 c1=565.22680727693 c0=340.3516260938257 length=1.0 normamps=418.36976028233755 emergamps=627.5546404235063 enabled=true
new line.53_54_1_1 Bus1=53_wooster Bus2=54_torrey phases=3 r1=5.008572 x1=23.23368 r0=21.89879290649873 x0=67.07296623652559 c1=431.7898232031747 c0=260.0024743447165 length=1.0 normamps=418.36976028233755 emergamps=627.5546404235063 enabled=true
new line.54_55_1_1 Bus1=54_torrey Bus2=55_wagenhls phases=3 r1=3.2184359999999996 x1=13.464108 r0=14.071847913301463 x0=38.86933371247836 c1=281.3598202807783 c0=169.42096715365395 length=1.0 normamps=418.36976028233755 emergamps=627.5546404235063 enabled=true
new line.54_56_1_1 Bus1=54_torrey Bus2=56_sunnysde phases=3 r1=0.52371 x1=1.8187019999999998 r0=2.2897977373715404 x0=5.250383832449339 c1=101.95811309184641 c0=61.394132651720156 length=1.0 normamps=418.36976028233755 emergamps=627.5546404235063 enabled=true
new line.54_59_1_1 Bus1=54_torrey Bus2=59_tidd phases=3 r1=9.579132 x1=43.667892 r0=41.88248225083217 x0=126.06418981996164 c1=832.9364976628982 c0=501.55316018754985 length=1.0 normamps=418.36976028233755 emergamps=627.5546404235063 enabled=true
new line.55_56_1_1 Bus1=55_wagenhls Bus2=56_sunnysde phases=3 r1=0.9293471999999999 x1=2.875644 r0=4.063350166681133 x0=8.301654017799478 c1=52.093352863866876 c0=31.368040453201278 length=1.0 normamps=418.36976028233755 emergamps=627.5546404235063 enabled=true
new line.55_59_1_1 Bus1=55_wagenhls Bus2=59_tidd phases=3 r1=9.0249516 x1=41.096951999999995 r0=39.45945991783174 x0=118.64218126100181 c1=786.4146263887498 c0=473.5399903710546 length=1.0 normamps=418.36976028233755 emergamps=627.5546404235063 enabled=true
new line.56_57_1_1 Bus1=56_sunnysde Bus2=57_wnwphil1 phases=3 r1=6.532092 x1=18.396504 r0=28.560022687943206 x0=53.10859457744568 c1=337.0746361779622 c0=202.9696735207142 length=1.0 normamps=418.36976028233755 emergamps=627.5546404235063 enabled=true
new line.56_58_1_1 Bus1=56_sunnysde Bus2=58_wnwphil2 phases=3 r1=6.532092 x1=18.396504 r0=28.560022687943206 x0=53.10859457744568 c1=337.0746361779622 c0=202.9696735207142 length=1.0 normamps=418.36976028233755 emergamps=627.5546404235063 enabled=true
new line.56_59_1_1 Bus1=56_sunnysde Bus2=59_tidd phases=3 r1=15.711300000000001 x1=47.80044 r0=68.6939321211462 x0=137.9943813554748 c1=792.5432561374399 c0=477.2303480714312 length=1.0 normamps=418.36976028233755 emergamps=627.5546404235063 enabled=true
new line.56_59_1_1 Bus1=56_sunnysde Bus2=59_tidd phases=3 r1=15.292331999999998 x1=45.515159999999995 r0=66.86209393124896 x0=131.39704041417718 c1=746.5785330222633 c0=449.55266531860656 length=1.0 normamps=418.36976028233755 emergamps=627.5546404235063 enabled=true
new line.59_60_1_1 Bus1=59_tidd Bus2=60_swkammer phases=3 r1=6.036948 x1=27.613799999999998 r0=26.39512300897375 x0=79.71786970734598 c1=523.7192694335281 c0=315.35783985036585 length=1.0 normamps=418.36976028233755 emergamps=627.5546404235063 enabled=true
new line.59_61_1_1 Bus1=59_tidd Bus2=61_wkammer phases=3 r1=6.246432 x1=28.566 r0=27.31104210392237 x0=82.46676176621999 c1=540.4337142026832 c0=325.4224517604839 length=1.0 normamps=418.36976028233755 emergamps=627.5546404235063 enabled=true
new line.60_61_1_1 Bus1=60_swkammer Bus2=61_wkammer phases=3 r1=0.5027616 x1=2.57094 r0=2.1982058278766785 x0=7.422008558959798 c1=202.80192986574914 c0=122.1172911760991 length=1.0 normamps=418.36976028233755 emergamps=627.5546404235063 enabled=true
new line.60_62_1_1 Bus1=60_swkammer Bus2=62_natrium phases=3 r1=2.342412 x1=10.683684 r0=10.241640788970889 x0=30.842568900566278 c1=204.47337434266464 c0=123.1237523671109 length=1.0 normamps=418.36976028233755 emergamps=627.5546404235063 enabled=true
new line.61_62_1_1 Bus1=61_wkammer Bus2=62_natrium phases=3 r1=1.5692256000000002 x1=7.160544 r0=6.861066674887816 x0=20.67166828273248 c1=136.50129894810038 c0=82.19433059929747 length=1.0 normamps=418.36976028233755 emergamps=627.5546404235063 enabled=true
new line.62_66_1_1 Bus1=62_natrium Bus2=66_muskngum phases=3 r1=9.179208 x1=41.51592 r0=40.13390943320299 x0=119.8516937669064 c1=805.0790897143063 c0=484.77880700401977 length=1.0 normamps=418.36976028233755 emergamps=627.5546404235063 enabled=true
new line.62_67_1_1 Bus1=62_natrium Bus2=67_summerfl phases=3 r1=4.913352 x1=22.281480000000002 r0=21.482466045158446 x0=64.3240741776516 c1=431.7898232031747 c0=260.0024743447165 length=1.0 normamps=418.36976028233755 emergamps=627.5546404235063 enabled=true
new line.63_64_1_1 Bus1=63_tidd Bus2=64_kammer phases=3 r1=0.3275568 x1=3.8088 r0=1.4321644030105631 x0=10.995568235496 c1=3008.6000584479266 c0=1811.6301438212504 length=1.0 normamps=418.36976028233755 emergamps=627.5546404235063 enabled=true
new line.64_65_1_1 Bus1=64_kammer Bus2=65_muskngum phases=3 r1=0.5122836000000001 x1=5.751288 r0=2.2398385140107067 x0=16.603308035598957 c1=5292.907510232464 c0=3187.1271048707185 length=1.0 normamps=418.36976028233755 emergamps=627.5546404235063 enabled=true
new line.65_68_1_1 Bus1=65_muskngum Bus2=68_sporn phases=3 r1=0.26280719999999996 x1=3.04704 r0=1.1490621372991727 x0=8.796454588396799 c1=8886.51313560082 c0=5351.0186655461 length=1.0 normamps=418.36976028233755 emergamps=627.5546404235063 enabled=true
new line.66_67_1_1 Bus1=66_muskngum Bus2=67_summerfl phases=3 r1=4.265856 x1=19.32966 r0=18.651443388044544 x0=55.802508795142195 c1=373.56784059061755 c0=224.94407619113858 length=1.0 normamps=418.36976028233755 emergamps=627.5546404235063 enabled=true
new line.68_81_1_1 Bus1=68_sporn Bus2=81_kanawha phases=3 r1=0.33327 x1=3.846888 r0=1.4571440146909802 x0=11.10552391785096 c1=11254.392811231135 c0=6776.8386861461595 length=1.0 normamps=418.36976028233755 emergamps=627.5546404235063 enabled=true
new line.68_116_1_1 Bus1=68_sporn Bus2=116_kygercrk phases=3 r1=0.0647496 x1=0.7712819999999999 r0=0.2831022657113904 x0=2.2266025676879395 c1=2284.307451784537 c0=1375.496961049468 length=1.0 normamps=418.36976028233755 emergamps=627.5546404235063 enabled=true
new line.69_70_1_1 Bus1=69_sporn Bus2=70_portsmth phases=3 r1=5.7132 x1=24.18588 r0=24.9796116804168 x0=69.8218582953996 c1=1699.3018848641068 c0=1023.2355441953359 length=1.0 normamps=418.36976028233755 emergamps=627.5546404235063 enabled=true
new line.69_75_1_1 Bus1=69_sporn Bus2=75_sthpoint phases=3 r1=7.71282 x1=23.23368 r0=33.72247576856268 x0=67.07296623652559 c1=1727.1592928126988 c0=1040.009897378866 length=1.0 normamps=418.36976028233755 emergamps=627.5546404235063 enabled=true
new line.69_77_1_1 Bus1=69_sporn Bus2=77_turner phases=3 r1=5.884596 x1=19.23444 r0=25.729000030829305 x0=55.52761958925479 c1=1445.7994725319204 c0=870.588930225212 length=1.0 normamps=418.36976028233755 emergamps=627.5546404235063 enabled=true
new line.70_71_1_1 Bus1=70_portsmth Bus2=71_nportsmt phases=3 r1=1.6796807999999999 x1=6.760619999999999 r0=7.344005834042539 x0=19.517133618005396 c1=122.29402089431849 c0=73.63941047569712 length=1.0 normamps=418.36976028233755 emergamps=627.5546404235063 enabled=true
new line.70_74_1_1 Bus1=70_portsmth Bus2=74_bellefnt phases=3 r1=7.6366439999999995 x1=25.195212 r0=33.38941427949045 x0=72.73568387780604 c1=469.11874985428784 c0=282.4801076106468 length=1.0 normamps=418.36976028233755 emergamps=627.5546404235063 enabled=true
new line.70_75_1_1 Bus1=70_portsmth Bus2=75_sthpoint phases=3 r1=8.150832 x1=26.85204 r0=35.63757933072797 x0=77.51875606024679 c1=501.43334307465443 c0=301.9383573035417 length=1.0 normamps=418.36976028233755 emergamps=627.5546404235063 enabled=true
new line.71_72_1_1 Bus1=71_nportsmt Bus2=72_hillsbro phases=3 r1=8.493624 x1=34.279199999999996 r0=37.13635603155298 x0=98.96011411946398 c1=618.9916046177124 c0=372.72612773803877 length=1.0 normamps=418.36976028233755 emergamps=627.5546404235063 enabled=true
new line.71_73_1_1 Bus1=71_nportsmt Bus2=73_sargents phases=3 r1=1.6492103999999999 x1=8.645976000000001 r0=7.21078123841365 x0=24.95993989457592 c1=164.08013281720636 c0=98.80094025099226 length=1.0 normamps=418.36976028233755 emergamps=627.5546404235063 enabled=true
new line.74_75_1_1 Bus1=74_bellefnt Bus2=75_sthpoint phases=3 r1=2.342412 x1=7.731863999999999 r0=10.241640788970889 x0=22.321003518056877 c1=144.0227990942202 c0=86.7234059588506 length=1.0 normamps=418.36976028233755 emergamps=627.5546404235063 enabled=true
new line.75_77_1_1 Bus1=75_sthpoint Bus2=77_turner phases=3 r1=11.445444 x1=38.068956 r0=50.042488733101656 x0=109.90070451378251 c1=693.3708838404527 c0=417.5136507380641 length=1.0 normamps=418.36976028233755 emergamps=627.5546404235063 enabled=true
new line.75_118_1_1 Bus1=75_sthpoint Bus2=118_whuntngd phases=3 r1=2.76138 x1=9.160164 r0=12.07347897886812 x0=26.44434160636788 c1=166.86587361206554 c0=100.47837556934526 length=1.0 normamps=418.36976028233755 emergamps=627.5546404235063 enabled=true
new line.76_77_1_1 Bus1=76_darrah Bus2=77_turner phases=3 r1=8.455536 x1=28.185119999999998 r0=36.96982528701687 x0=81.36720494267038 c1=512.5763062540913 c0=308.64809857695377 length=1.0 normamps=418.36976028233755 emergamps=627.5546404235063 enabled=true
new line.76_118_1_1 Bus1=76_darrah Bus2=118_whuntngd phases=3 r1=3.123216 x1=10.359936 r0=13.655521051961186 x0=29.907945600549116 c1=188.8732258914532 c0=113.73011458433406 length=1.0 normamps=418.36976028233755 emergamps=627.5546404235063 enabled=true
new line.77_78_1_1 Bus1=77_turner Bus2=78_chemical phases=3 r1=0.7160544 x1=2.361456 r0=3.130777997278906 x0=6.81725230600752 c1=176.05881823510092 c0=106.01391211991022 length=1.0 normamps=418.36976028233755 emergamps=627.5546404235063 enabled=true
new line.77_80_1_1 Bus1=77_turner Bus2=80_cabincrk phases=3 r1=3.23748 x1=9.23634 r0=14.155113285569522 x0=26.664252971077797 c1=657.4348275867691 c0=395.8747351313102 length=1.0 normamps=418.36976028233755 emergamps=627.5546404235063 enabled=true
new line.77_80_1_1 Bus1=77_turner Bus2=80_cabincrk phases=3 r1=5.598936 x1=19.996199999999998 r0=24.480019446808466 x0=57.726733236353994 c1=317.5744506139479 c0=191.22762629224312 length=1.0 normamps=418.36976028233755 emergamps=627.5546404235063 enabled=true
new line.77_82_1_1 Bus1=77_turner Bus2=82_logan phases=3 r1=5.675112 x1=16.244532 r0=24.81308093588069 x0=46.89609852439043 c1=1138.5322628589515 c0=685.5678146108751 length=1.0 normamps=418.36976028233755 emergamps=627.5546404235063 enabled=true
new line.78_79_1_1 Bus1=78_chemical Bus2=79_capitlhl phases=3 r1=1.0398024 x1=4.646736000000001 r0=4.546289325835858 x0=13.41459324730512 c1=90.2580017534378 c0=54.34890431463751 length=1.0 normamps=418.36976028233755 emergamps=627.5546404235063 enabled=true
new line.79_80_1_1 Bus1=79_capitlhl Bus2=80_cabincrk phases=3 r1=2.9708639999999997 x1=13.406976 r0=12.989398073816735 x0=38.70440018894592 c1=260.4667643193344 c0=156.8402022660064 length=1.0 normamps=418.36976028233755 emergamps=627.5546404235063 enabled=true
new line.80_96_1_1 Bus1=80_cabincrk Bus2=96_baileysv phases=3 r1=6.7796639999999995 x1=34.66008 r0=29.642472527427934 x0=100.0596709430136 c1=688.0779763302203 c0=414.3265236331934 length=1.0 normamps=418.36976028233755 emergamps=627.5546404235063 enabled=true
new line.80_97_1_1 Bus1=80_cabincrk Bus2=97_sundial phases=3 r1=3.485052 x1=17.787096 r0=15.23756312505425 x0=51.34930365976631 c1=353.78908094711727 c0=213.0342854308322 length=1.0 normamps=418.36976028233755 emergamps=627.5546404235063 enabled=true
new line.80_98_1_1 Bus1=80_cabincrk Bus2=98_bradley phases=3 r1=4.532472 x1=20.56752 r0=19.81715859979733 x0=59.37606847167839 c1=398.3609336648644 c0=239.87325052448037 length=1.0 normamps=418.36976028233755 emergamps=627.5546404235063 enabled=true
new line.80_99_1_1 Bus1=80_cabincrk Bus2=99_hinton phases=3 r1=8.645976000000001 x1=39.230639999999994 r0=37.80247900969743 x0=113.25435282560878 c1=760.5072369965593 c0=457.9398419103716 length=1.0 normamps=418.36976028233755 emergamps=627.5546404235063 enabled=true
new line.82_83_1_1 Bus1=82_logan Bus2=83_sprigg phases=3 r1=2.132928 x1=6.9796260000000006 r0=9.325721694022272 x0=20.14937879154642 c1=528.7336028642745 c0=318.37722342340123 length=1.0 normamps=418.36976028233755 emergamps=627.5546404235063 enabled=true
new line.82_96_1_1 Bus1=82_logan Bus2=96_baileysv phases=3 r1=3.0851279999999996 x1=10.09332 r0=13.488990307425071 x0=29.138255824064398 c1=757.7214962017 c0=456.2624065920186 length=1.0 normamps=418.36976028233755 emergamps=627.5546404235063 enabled=true
new line.83_84_1_1 Bus1=83_sprigg Bus2=84_betsylne phases=3 r1=11.9025 x1=25.138080000000002 r0=52.040857667535 x0=72.5707503542736 c1=359.3605625368357 c0=216.38915606753824 length=1.0 normamps=418.36976028233755 emergamps=627.5546404235063 enabled=true
new line.83_85_1_1 Bus1=83_sprigg Bus2=85_beaverck phases=3 r1=8.18892 x1=28.185119999999998 r0=35.80411007526408 x0=81.36720494267038 c1=484.7188983054993 c0=291.8737453934237 length=1.0 normamps=418.36976028233755 emergamps=627.5546404235063 enabled=true
new line.84_85_1_1 Bus1=84_betsylne Bus2=85_beaverck phases=3 r1=5.751288 x1=12.207204 r0=25.146142424952913 x0=35.24079619476468 c1=171.88020704281212 c0=103.4977591423807 length=1.0 normamps=418.36976028233755 emergamps=627.5546404235063 enabled=true
new line.85_86_1_1 Bus1=85_beaverck Bus2=86_hazard phases=3 r1=6.665400000000001 x1=23.42412 r0=29.142880293819605 x0=67.6227446483004 c1=384.4322296905684 c0=231.48607393271533 length=1.0 normamps=418.36976028233755 emergamps=627.5546404235063 enabled=true
new line.85_88_1_1 Bus1=85_beaverck Bus2=88_fremont phases=3 r1=3.8088 x1=19.424879999999998 r0=16.6530744536112 x0=56.07739800102959 c1=384.4322296905684 c0=231.48607393271533 length=1.0 normamps=418.36976028233755 emergamps=627.5546404235063 enabled=true
new line.85_89_1_1 Bus1=85_beaverck Bus2=89_clinchrv phases=3 r1=4.551516 x1=32.94612 r0=19.900423972065386 x0=95.1116652370404 c1=654.64908679191 c0=394.1972998129573 length=1.0 normamps=418.36976028233755 emergamps=627.5546404235063 enabled=true
new line.86_87_1_1 Bus1=86_hazard Bus2=87_pinevlle phases=3 r1=5.3856432 x1=39.497256 r0=23.547447277406235 x0=114.02404260209352 c1=619.8273268561701 c0=373.22935833354467 length=1.0 normamps=418.36976028233755 emergamps=627.5546404235063 enabled=true
new line.88_89_1_1 Bus1=88_fremont Bus2=89_clinchrv phases=3 r1=2.647116 x1=13.559327999999999 r0=11.573886745259784 x0=39.144222918365756 c1=269.3811348628838 c0=162.20799528473603 length=1.0 normamps=418.36976028233755 emergamps=627.5546404235063 enabled=true
new line.89_90_1_1 Bus1=89_clinchrv Bus2=90_holston phases=3 r1=9.864792 x1=35.80272 r0=43.13146283485301 x0=103.35834141366239 c1=735.4355698428266 c0=442.84292404519454 length=1.0 normamps=418.36976028233755 emergamps=627.5546404235063 enabled=true
new line.89_90_1_1 Bus1=89_clinchrv Bus2=90_holston phases=3 r1=4.532472 x1=18.986867999999998 r0=19.81715859979733 x0=54.81290765394755 c1=1476.4426212753713 c0=889.0407187270949 length=1.0 normamps=418.36976028233755 emergamps=627.5546404235063 enabled=true
new line.89_92_1_1 Bus1=89_clinchrv Bus2=92_saltvlle phases=3 r1=1.885356 x1=9.61722 r0=8.243271854537545 x0=27.763809794627395 c1=763.2929777914185 c0=459.6172772287247 length=1.0 normamps=418.36976028233755 emergamps=627.5546404235063 enabled=true
new line.89_92_1_1 Bus1=89_clinchrv Bus2=92_saltvlle phases=3 r1=7.484292 x1=30.108563999999998 r0=32.72329130134601 x0=86.91996690159587 c1=576.6483445358525 c0=347.2291108990729 length=1.0 normamps=418.36976028233755 emergamps=627.5546404235063 enabled=true
new line.90_91_1_1 Bus1=90_holston Bus2=91_holstont phases=3 r1=4.8371759999999995 x1=15.920784 r0=21.14940455608622 x0=45.961475224373274 c1=298.0742650499335 c0=179.48557906377204 length=1.0 normamps=418.36976028233755 emergamps=627.5546404235063 enabled=true
new line.91_92_1_1 Bus1=91_holstont Bus2=92_saltvlle phases=3 r1=7.370028 x1=24.223968000000003 r0=32.22369906773767 x0=69.93181397775456 c1=455.1900458799919 c0=274.09293101888176 length=1.0 normamps=418.36976028233755 emergamps=627.5546404235063 enabled=true
new line.92_93_1_1 Bus1=92_saltvlle Bus2=93_tazewell phases=3 r1=4.913352 x1=16.149312 r0=21.482466045158446 x0=46.621209318503034 c1=303.64574663965186 c0=182.84044970047805 length=1.0 normamps=418.36976028233755 emergamps=627.5546404235063 enabled=true
new line.92_94_1_1 Bus1=92_saltvlle Bus2=94_switchbk phases=3 r1=9.160164 x1=30.08952 r0=40.050644060934935 x0=86.8649890604184 c1=565.5053813564159 c0=340.519369625661 length=1.0 normamps=418.36976028233755 emergamps=627.5546404235063 enabled=true
new line.92_100_1_1 Bus1=92_saltvlle Bus2=100_glenlyn phases=3 r1=12.340511999999999 x1=56.17979999999999 r0=53.955961229700286 x0=162.18463147356596 c1=657.4348275867691 c0=395.8747351313102 length=1.0 normamps=418.36976028233755 emergamps=627.5546404235063 enabled=true
new line.92_102_1_1 Bus1=92_saltvlle Bus2=102_smythe phases=3 r1=2.342412 x1=10.645596 r0=10.241640788970889 x0=30.732613218211316 c1=203.91622618369283 c0=122.78826530344031 length=1.0 normamps=418.36976028233755 emergamps=627.5546404235063 enabled=true
new line.93_94_1_1 Bus1=93_tazewell Bus2=94_switchbk phases=3 r1=4.246812 x1=13.940208 r0=18.56817801577649 x0=40.243779741915354 c1=261.3024865577922 c0=157.34343286151233 length=1.0 normamps=418.36976028233755 emergamps=627.5546404235063 enabled=true
new line.94_95_1_1 Bus1=94_switchbk Bus2=95_caldwell phases=3 r1=2.513808 x1=8.265096 r0=10.991029139383393 x0=23.860383071026316 c1=154.60861411468514 c0=93.09766016859204 length=1.0 normamps=418.36976028233755 emergamps=627.5546404235063 enabled=true
new line.94_96_1_1 Bus1=94_switchbk Bus2=96_baileysv phases=3 r1=5.122836 x1=16.549236 r0=22.398385140107067 x0=47.775743983230115 c1=320.360191408807 c0=192.9050616105961 length=1.0 normamps=418.36976028233755 emergamps=627.5546404235063 enabled=true
new line.94_100_1_1 Bus1=94_switchbk Bus2=100_glenlyn phases=3 r1=3.3898319999999997 x1=11.04552 r0=14.821236263713967 x0=31.887147882938397 c1=841.2937200474759 c0=506.58546614260894 length=1.0 normamps=418.36976028233755 emergamps=627.5546404235063 enabled=true
new line.95_96_1_1 Bus1=95_caldwell Bus2=96_baileysv phases=3 r1=3.256524 x1=10.417068 r0=14.238378657837577 x0=30.07287912408156 c1=205.30909658112242 c0=123.62698296261682 length=1.0 normamps=418.36976028233755 emergamps=627.5546404235063 enabled=true
new line.96_97_1_1 Bus1=96_baileysv Bus2=97_sundial phases=3 r1=3.294612 x1=16.853939999999998 r0=14.404909402373688 x0=48.65538944206979 c1=334.28889538310295 c0=201.29223820236115 length=1.0 normamps=418.36976028233755 emergamps=627.5546404235063 enabled=true
new line.98_100_1_1 Bus1=98_bradley Bus2=100_glenlyn phases=3 r1=7.560468 x1=34.08876 r0=33.05635279041823 x0=98.4103357076892 c1=663.0063091764877 c0=399.22960576801637 length=1.0 normamps=418.36976028233755 emergamps=627.5546404235063 enabled=true
new line.99_100_1_1 Bus1=99_hinton Bus2=100_glenlyn phases=3 r1=3.42792 x1=15.482771999999999 r0=14.98776700825008 x0=44.696984877291236 c1=300.8600058447927 c0=181.16301438212506 length=1.0 normamps=418.36976028233755 emergamps=627.5546404235063 enabled=true
new line.100_101_1_1 Bus1=100_glenlyn Bus2=101_wythe phases=3 r1=5.275188 x1=24.033528 r0=23.064508118251513 x0=69.38203556597976 c1=456.86149035690744 c0=275.0993922098936 length=1.0 normamps=418.36976028233755 emergamps=627.5546404235063 enabled=true
new line.100_103_1_1 Bus1=100_glenlyn Bus2=103_claytor phases=3 r1=3.04704 x1=9.998099999999999 r0=13.32245956288896 x0=28.863366618176997 c1=746.5785330222633 c0=449.55266531860656 length=1.0 normamps=418.36976028233755 emergamps=627.5546404235063 enabled=true
new line.100_104_1_1 Bus1=100_glenlyn Bus2=104_hancock phases=3 r1=8.588844 x1=38.849759999999996 r0=37.55268289289326 x0=112.15479600205919 c1=753.5428850094113 c0=453.7462536144891 length=1.0 normamps=418.36976028233755 emergamps=627.5546404235063 enabled=true
new line.100_106_1_1 Bus1=100_glenlyn Bus2=106_cloverdl phases=3 r1=11.521619999999999 x1=43.61076 r0=50.37555022217388 x0=125.89925629642919 c1=863.5796464063494 c0=520.004948689433 length=1.0 normamps=418.36976028233755 emergamps=627.5546404235063 enabled=true
new line.101_102_1_1 Bus1=101_wythe Bus2=102_smythe phases=3 r1=4.684824 x1=21.32928 r0=20.483281577941778 x0=61.5751821187776 c1=409.5038968443011 c0=246.5829917978924 length=1.0 normamps=418.36976028233755 emergamps=627.5546404235063 enabled=true
new line.103_104_1_1 Bus1=103_claytor Bus2=104_hancock phases=3 r1=8.874504 x1=30.165696 r0=38.8016634769141 x0=87.08490042512831 c1=566.8982517538454 c0=341.35808728483744 length=1.0 normamps=418.36976028233755 emergamps=627.5546404235063 enabled=true
new line.103_105_1_1 Bus1=103_claytor Bus2=105_roanoke phases=3 r1=10.18854 x1=30.9465 r0=44.54697416340996 x0=89.338991913405 c1=568.2911221512751 c0=342.196804944014 length=1.0 normamps=418.36976028233755 emergamps=627.5546404235063 enabled=true
new line.103_110_1_1 Bus1=103_claytor Bus2=110_fieldale phases=3 r1=7.438586399999999 x1=34.526771999999994 r0=32.52345440790267 x0=99.67482605477122 c1=642.1132532150436 c0=386.6488408803687 length=1.0 normamps=418.36976028233755 emergamps=627.5546404235063 enabled=true
new line.104_105_1_1 Bus1=104_hancock Bus2=105_roanoke phases=3 r1=1.8929736 x1=7.198632 r0=8.276578003444767 x0=20.781623965087437 c1=137.33702118655813 c0=82.69756119480337 length=1.0 normamps=418.36976028233755 emergamps=627.5546404235063 enabled=true
new line.105_106_1_1 Bus1=105_roanoke Bus2=106_cloverdl phases=3 r1=2.66616 x1=10.417068 r0=11.657152117527842 x0=30.07287912408156 c1=199.73761499140403 c0=120.2721123259108 length=1.0 normamps=418.36976028233755 emergamps=627.5546404235063 enabled=true
new line.105_107_1_1 Bus1=105_roanoke Bus2=107_reusens phases=3 r1=10.09332 x1=34.850519999999996 r0=44.13064730206968 x0=100.60944935478838 c1=657.4348275867691 c0=395.8747351313102 length=1.0 normamps=418.36976028233755 emergamps=627.5546404235063 enabled=true
new line.105_108_1_1 Bus1=105_roanoke Bus2=108_blaine phases=3 r1=4.970484 x1=13.387932 r0=21.732262161962616 x0=38.649422347768436 c1=256.8453012860175 c0=154.6595363521475 length=1.0 normamps=418.36976028233755 emergamps=627.5546404235063 enabled=true
new line.106_107_1_1 Bus1=106_cloverdl Bus2=107_reusens phases=3 r1=10.09332 x1=34.850519999999996 r0=44.13064730206968 x0=100.60944935478838 c1=657.4348275867691 c0=395.8747351313102 length=1.0 normamps=418.36976028233755 emergamps=627.5546404235063 enabled=true
new line.108_109_1_1 Bus1=108_blaine Bus2=109_franklin phases=3 r1=1.9996200000000002 x1=5.484672 r0=8.74286408814588 x0=15.833618259114239 c1=105.85815020464926 c0=63.74254209741436 length=1.0 normamps=418.36976028233755 emergamps=627.5546404235063 enabled=true
new line.109_110_1_1 Bus1=109_franklin Bus2=110_fieldale phases=3 r1=5.294232 x1=14.511528 r0=23.14777349051957 x0=41.893114977239755 c1=281.3598202807783 c0=169.42096715365395 length=1.0 normamps=418.36976028233755 emergamps=627.5546404235063 enabled=true
new line.110_111_1_1 Bus1=110_fieldale Bus2=111_danriver phases=3 r1=4.18968 x1=14.378219999999999 r0=18.318381898972323 x0=41.50827008899739 c1=278.5740794859191 c0=167.74353183530096 length=1.0 normamps=418.36976028233755 emergamps=627.5546404235063 enabled=true
new line.110_112_1_1 Bus1=110_fieldale Bus2=112_danville phases=3 r1=4.703868 x1=12.18816 r0=20.566546950209833 x0=35.185818353587194 c1=863.5796464063494 c0=520.004948689433 length=1.0 normamps=418.36976028233755 emergamps=627.5546404235063 enabled=true
new line.114_115_1_1 Bus1=114_wmedford Bus2=115_medford phases=3 r1=0.438012 x1=1.980576 r0=1.915103562165288 x0=5.717695482457919 c1=38.44322296905685 c0=23.148607393271536 length=1.0 normamps=418.36976028233755 emergamps=627.5546404235063 enabled=true
